  0
SECTION
  2
ENTITIES
999
DXF created from EnergyPlus
999
Program Version,EnergyPlus, Version 9.5.0-de239b2e5f, YMD=2021.08.23 16:11
999
Polygon Action,ThickPolyline
999
Color Scheme,Default
999
Text - True North
  0
TEXT
  8
1
  6
Continuous
 62
  3
 10
      -11.00000
 20
        1.00000
 30
        0.10000
 40
 .25
  1
True North
 41
 0.0
  7
MONOTXT
210
0.0
220
0.0
230
1.0
999
Text - Building Title
  0
TEXT
  8
1
  6
Continuous
 62
  3
 10
      -14.00000
 20
       -3.00000
 30
        0.10000
 40
 .4
  1
Building - Exercise 2
 41
 0.0
  7
MONOTXT
210
0.0
220
0.0
230
1.0
999
North Arrow Stem
  0
3DFACE
  8
1
 62
  3
 10
      -10.00000
 20
        1.00000
 30
        0.10000
 11
      -10.00000
 21
        1.00000
 31
        0.00000
 12
      -10.00000
 22
       -2.00000
 32
        0.00000
 13
      -10.00000
 23
       -2.00000
 33
        0.10000
999
North Arrow Head 1
  0
3DFACE
  8
1
 62
  3
 10
      -10.00000
 20
        1.00000
 30
        0.10000
 11
      -10.00000
 21
        1.00000
 31
        0.00000
 12
      -10.50000
 22
        0.13397
 32
        0.00000
 13
      -10.50000
 23
        0.13397
 33
        0.10000
999
North Arrow Head 2
  0
3DFACE
  8
1
 62
  3
 10
      -10.00000
 20
        1.00000
 30
        0.10000
 11
      -10.00000
 21
        1.00000
 31
        0.00000
 12
       -9.50000
 22
        0.13397
 32
        0.00000
 13
       -9.50000
 23
        0.13397
 33
        0.10000
999
North Arrow Side 1
  0
3DFACE
  8
1
 62
  3
 10
      -10.50000
 20
        2.50000
 30
        0.10000
 11
      -10.50000
 21
        2.50000
 31
        0.00000
 12
      -10.50000
 22
        1.50000
 32
        0.00000
 13
      -10.50000
 23
        1.50000
 33
        0.10000
999
North Arrow Side 2
  0
3DFACE
  8
1
 62
  3
 10
      -10.50000
 20
        2.50000
 30
        0.10000
 11
      -10.50000
 21
        2.50000
 31
        0.00000
 12
       -9.50000
 22
        1.50000
 32
        0.00000
 13
       -9.50000
 23
        1.50000
 33
        0.10000
999
North Arrow Side 3
  0
3DFACE
  8
1
 62
  3
 10
       -9.50000
 20
        2.50000
 30
        0.10000
 11
       -9.50000
 21
        2.50000
 31
        0.00000
 12
       -9.50000
 22
        1.50000
 32
        0.00000
 13
       -9.50000
 23
        1.50000
 33
        0.10000
999
Zone Names
999
Zone=1:PLENUM
999
Zone=2:SOUTH_PERIMETER
999
Zone=3:EAST_PERIMETER
999
Zone=4:NORTH_PERIMETER
999
Zone=5:WEST_PERIMETER
999
Zone=6:CORE
999
PLENUM:WALL-1PF
  0
3DFACE
  8
PLENUM
 62
 43
 10
        0.00000
 20
        0.00000
 30
        3.00000
 11
        0.00000
 21
        0.00000
 31
        2.40000
 12
       30.50000
 22
        0.00000
 32
        2.40000
 13
       30.50000
 23
        0.00000
 33
        3.00000
999
PLENUM:WALL-1PR
  0
3DFACE
  8
PLENUM
 62
 43
 10
       30.50000
 20
        0.00000
 30
        3.00000
 11
       30.50000
 21
        0.00000
 31
        2.40000
 12
       30.50000
 22
       15.20000
 32
        2.40000
 13
       30.50000
 23
       15.20000
 33
        3.00000
999
PLENUM:WALL-1PB
  0
3DFACE
  8
PLENUM
 62
 43
 10
       30.50000
 20
       15.20000
 30
        3.00000
 11
       30.50000
 21
       15.20000
 31
        2.40000
 12
        0.00000
 22
       15.20000
 32
        2.40000
 13
        0.00000
 23
       15.20000
 33
        3.00000
999
PLENUM:WALL-1PL
  0
3DFACE
  8
PLENUM
 62
 43
 10
        0.00000
 20
       15.20000
 30
        3.00000
 11
        0.00000
 21
       15.20000
 31
        2.40000
 12
        0.00000
 22
        0.00000
 32
        2.40000
 13
        0.00000
 23
        0.00000
 33
        3.00000
999
PLENUM:C1-1P
  0
3DFACE
  8
PLENUM
 62
  8
 10
       26.80000
 20
        3.70000
 30
        2.40000
 11
       30.50000
 21
        0.00000
 31
        2.40000
 12
        0.00000
 22
        0.00000
 32
        2.40000
 13
        3.70000
 23
        3.70000
 33
        2.40000
999
PLENUM:C2-1P
  0
3DFACE
  8
PLENUM
 62
  8
 10
       26.80000
 20
       11.60000
 30
        2.40000
 11
       30.50000
 21
       15.20000
 31
        2.40000
 12
       30.50000
 22
        0.00000
 32
        2.40000
 13
       26.80000
 23
        3.70000
 33
        2.40000
999
PLENUM:C3-1P
  0
3DFACE
  8
PLENUM
 62
  8
 10
       26.80000
 20
       11.60000
 30
        2.40000
 11
        3.70000
 21
       11.60000
 31
        2.40000
 12
        0.00000
 22
       15.20000
 32
        2.40000
 13
       30.50000
 23
       15.20000
 33
        2.40000
999
PLENUM:C4-1P
  0
3DFACE
  8
PLENUM
 62
  8
 10
        3.70000
 20
        3.70000
 30
        2.40000
 11
        0.00000
 21
        0.00000
 31
        2.40000
 12
        0.00000
 22
       15.20000
 32
        2.40000
 13
        3.70000
 23
       11.60000
 33
        2.40000
999
PLENUM:C5-1P
  0
3DFACE
  8
PLENUM
 62
  8
 10
       26.80000
 20
       11.60000
 30
        2.40000
 11
       26.80000
 21
        3.70000
 31
        2.40000
 12
        3.70000
 22
        3.70000
 32
        2.40000
 13
        3.70000
 23
       11.60000
 33
        2.40000
999
PLENUM:TOP-1
  0
3DFACE
  8
PLENUM
 62
 15
 10
        0.00000
 20
       15.20000
 30
        3.00000
 11
        0.00000
 21
        0.00000
 31
        3.00000
 12
       30.50000
 22
        0.00000
 32
        3.00000
 13
       30.50000
 23
       15.20000
 33
        3.00000
999
SOUTH PERIMETER:FRONT-1
  0
3DFACE
  8
SOUTH_PERIMETER
 62
 43
 10
        0.00000
 20
        0.00000
 30
        2.40000
 11
        0.00000
 21
        0.00000
 31
        0.00000
 12
       30.50000
 22
        0.00000
 32
        0.00000
 13
       30.50000
 23
        0.00000
 33
        2.40000
999
SOUTH PERIMETER:WF-1
  0
3DFACE
  8
SOUTH_PERIMETER
 62
143
 10
        3.00000
 20
        0.00000
 30
        2.10000
 11
        3.00000
 21
        0.00000
 31
        0.90000
 12
       16.80000
 22
        0.00000
 32
        0.90000
 13
       16.80000
 23
        0.00000
 33
        2.10000
999
SOUTH PERIMETER:DF-1
  0
3DFACE
  8
SOUTH_PERIMETER
 62
143
 10
       21.30000
 20
        0.00000
 30
        2.40000
 11
       21.30000
 21
        0.00000
 31
        0.00000
 12
       23.80000
 22
        0.00000
 32
        0.00000
 13
       23.80000
 23
        0.00000
 33
        2.40000
999
SOUTH PERIMETER:SB12
  0
3DFACE
  8
SOUTH_PERIMETER
 62
 43
 10
       30.50000
 20
        0.00000
 30
        2.40000
 11
       30.50000
 21
        0.00000
 31
        0.00000
 12
       26.80000
 22
        3.70000
 32
        0.00000
 13
       26.80000
 23
        3.70000
 33
        2.40000
999
SOUTH PERIMETER:SB14
  0
3DFACE
  8
SOUTH_PERIMETER
 62
 43
 10
        3.70000
 20
        3.70000
 30
        2.40000
 11
        3.70000
 21
        3.70000
 31
        0.00000
 12
        0.00000
 22
        0.00000
 32
        0.00000
 13
        0.00000
 23
        0.00000
 33
        2.40000
999
SOUTH PERIMETER:SB15
  0
3DFACE
  8
SOUTH_PERIMETER
 62
 43
 10
       26.80000
 20
        3.70000
 30
        2.40000
 11
       26.80000
 21
        3.70000
 31
        0.00000
 12
        3.70000
 22
        3.70000
 32
        0.00000
 13
        3.70000
 23
        3.70000
 33
        2.40000
999
SOUTH PERIMETER:F1-1
  0
3DFACE
  8
SOUTH_PERIMETER
 62
  8
 10
       26.80000
 20
        3.70000
 30
        0.00000
 11
       30.50000
 21
        0.00000
 31
        0.00000
 12
        0.00000
 22
        0.00000
 32
        0.00000
 13
        3.70000
 23
        3.70000
 33
        0.00000
999
SOUTH PERIMETER:C1-1
  0
3DFACE
  8
SOUTH_PERIMETER
 62
 15
 10
        3.70000
 20
        3.70000
 30
        2.40000
 11
        0.00000
 21
        0.00000
 31
        2.40000
 12
       30.50000
 22
        0.00000
 32
        2.40000
 13
       26.80000
 23
        3.70000
 33
        2.40000
999
SOUTH PERIMETER:MAIN SOUTH OVERHANG
  0
3DFACE
  8
SOUTH_PERIMETER
 62
 13
 10
        0.00000
 20
       -1.30000
 30
        2.20000
 11
        0.00000
 21
        0.00000
 31
        2.20000
 12
       19.80000
 22
        0.00000
 32
        2.20000
 13
       19.80000
 23
       -1.30000
 33
        2.20000
999
SOUTH PERIMETER:Mir-MAIN SOUTH OVERHANG
  0
3DFACE
  8
SOUTH_PERIMETER
 62
 13
 10
       19.80000
 20
       -1.30000
 30
        2.20000
 11
       19.80000
 21
        0.00000
 31
        2.20000
 12
        0.00000
 22
        0.00000
 32
        2.20000
 13
        0.00000
 23
       -1.30000
 33
        2.20000
999
SOUTH PERIMETER:SOUTH DOOR OVERHANG
  0
3DFACE
  8
SOUTH_PERIMETER
 62
 13
 10
       21.00000
 20
       -2.00000
 30
        2.60000
 11
       21.00000
 21
        0.00000
 31
        2.60000
 12
       24.10000
 22
        0.00000
 32
        2.60000
 13
       24.10000
 23
       -2.00000
 33
        2.60000
999
SOUTH PERIMETER:Mir-SOUTH DOOR OVERHANG
  0
3DFACE
  8
SOUTH_PERIMETER
 62
 13
 10
       24.10000
 20
       -2.00000
 30
        2.60000
 11
       24.10000
 21
        0.00000
 31
        2.60000
 12
       21.00000
 22
        0.00000
 32
        2.60000
 13
       21.00000
 23
       -2.00000
 33
        2.60000
999
EAST PERIMETER:RIGHT-1
  0
3DFACE
  8
EAST_PERIMETER
 62
 43
 10
       30.50000
 20
        0.00000
 30
        2.40000
 11
       30.50000
 21
        0.00000
 31
        0.00000
 12
       30.50000
 22
       15.20000
 32
        0.00000
 13
       30.50000
 23
       15.20000
 33
        2.40000
999
EAST PERIMETER:WR-1
  0
3DFACE
  8
EAST_PERIMETER
 62
143
 10
       30.50000
 20
        3.80000
 30
        2.10000
 11
       30.50000
 21
        3.80000
 31
        0.90000
 12
       30.50000
 22
       11.40000
 32
        0.90000
 13
       30.50000
 23
       11.40000
 33
        2.10000
999
EAST PERIMETER:SB21
  0
3DFACE
  8
EAST_PERIMETER
 62
 43
 10
       26.80000
 20
        3.70000
 30
        2.40000
 11
       26.80000
 21
        3.70000
 31
        0.00000
 12
       30.50000
 22
        0.00000
 32
        0.00000
 13
       30.50000
 23
        0.00000
 33
        2.40000
999
EAST PERIMETER:SB23
  0
3DFACE
  8
EAST_PERIMETER
 62
 43
 10
       30.50000
 20
       15.20000
 30
        2.40000
 11
       30.50000
 21
       15.20000
 31
        0.00000
 12
       26.80000
 22
       11.60000
 32
        0.00000
 13
       26.80000
 23
       11.60000
 33
        2.40000
999
EAST PERIMETER:SB25
  0
3DFACE
  8
EAST_PERIMETER
 62
 43
 10
       26.80000
 20
       11.60000
 30
        2.40000
 11
       26.80000
 21
       11.60000
 31
        0.00000
 12
       26.80000
 22
        3.70000
 32
        0.00000
 13
       26.80000
 23
        3.70000
 33
        2.40000
999
EAST PERIMETER:F2-1
  0
3DFACE
  8
EAST_PERIMETER
 62
  8
 10
       26.80000
 20
       11.60000
 30
        0.00000
 11
       30.50000
 21
       15.20000
 31
        0.00000
 12
       30.50000
 22
        0.00000
 32
        0.00000
 13
       26.80000
 23
        3.70000
 33
        0.00000
999
EAST PERIMETER:C2-1
  0
3DFACE
  8
EAST_PERIMETER
 62
 15
 10
       26.80000
 20
        3.70000
 30
        2.40000
 11
       30.50000
 21
        0.00000
 31
        2.40000
 12
       30.50000
 22
       15.20000
 32
        2.40000
 13
       26.80000
 23
       11.60000
 33
        2.40000
999
NORTH PERIMETER:BACK-1
  0
3DFACE
  8
NORTH_PERIMETER
 62
 43
 10
       30.50000
 20
       15.20000
 30
        2.40000
 11
       30.50000
 21
       15.20000
 31
        0.00000
 12
        0.00000
 22
       15.20000
 32
        0.00000
 13
        0.00000
 23
       15.20000
 33
        2.40000
999
NORTH PERIMETER:WB-1
  0
3DFACE
  8
NORTH_PERIMETER
 62
143
 10
       27.40000
 20
       15.20000
 30
        2.10000
 11
       27.40000
 21
       15.20000
 31
        0.90000
 12
       13.70000
 22
       15.20000
 32
        0.90000
 13
       13.70000
 23
       15.20000
 33
        2.10000
999
NORTH PERIMETER:DB-1
  0
3DFACE
  8
NORTH_PERIMETER
 62
143
 10
        9.10000
 20
       15.20000
 30
        2.10000
 11
        9.10000
 21
       15.20000
 31
        0.00000
 12
        7.00000
 22
       15.20000
 32
        0.00000
 13
        7.00000
 23
       15.20000
 33
        2.10000
999
NORTH PERIMETER:SB32
  0
3DFACE
  8
NORTH_PERIMETER
 62
 43
 10
       26.80000
 20
       11.60000
 30
        2.40000
 11
       26.80000
 21
       11.60000
 31
        0.00000
 12
       30.50000
 22
       15.20000
 32
        0.00000
 13
       30.50000
 23
       15.20000
 33
        2.40000
999
NORTH PERIMETER:SB34
  0
3DFACE
  8
NORTH_PERIMETER
 62
 43
 10
        0.00000
 20
       15.20000
 30
        2.40000
 11
        0.00000
 21
       15.20000
 31
        0.00000
 12
        3.70000
 22
       11.60000
 32
        0.00000
 13
        3.70000
 23
       11.60000
 33
        2.40000
999
NORTH PERIMETER:SB35
  0
3DFACE
  8
NORTH_PERIMETER
 62
 43
 10
        3.70000
 20
       11.60000
 30
        2.40000
 11
        3.70000
 21
       11.60000
 31
        0.00000
 12
       26.80000
 22
       11.60000
 32
        0.00000
 13
       26.80000
 23
       11.60000
 33
        2.40000
999
NORTH PERIMETER:F3-1
  0
3DFACE
  8
NORTH_PERIMETER
 62
  8
 10
       26.80000
 20
       11.60000
 30
        0.00000
 11
        3.70000
 21
       11.60000
 31
        0.00000
 12
        0.00000
 22
       15.20000
 32
        0.00000
 13
       30.50000
 23
       15.20000
 33
        0.00000
999
NORTH PERIMETER:C3-1
  0
3DFACE
  8
NORTH_PERIMETER
 62
 15
 10
       30.50000
 20
       15.20000
 30
        2.40000
 11
        0.00000
 21
       15.20000
 31
        2.40000
 12
        3.70000
 22
       11.60000
 32
        2.40000
 13
       26.80000
 23
       11.60000
 33
        2.40000
999
WEST PERIMETER:LEFT-1
  0
3DFACE
  8
WEST_PERIMETER
 62
 43
 10
        0.00000
 20
       15.20000
 30
        2.40000
 11
        0.00000
 21
       15.20000
 31
        0.00000
 12
        0.00000
 22
        0.00000
 32
        0.00000
 13
        0.00000
 23
        0.00000
 33
        2.40000
999
WEST PERIMETER:WL-1
  0
3DFACE
  8
WEST_PERIMETER
 62
143
 10
        0.00000
 20
       11.40000
 30
        2.10000
 11
        0.00000
 21
       11.40000
 31
        0.90000
 12
        0.00000
 22
        3.80000
 32
        0.90000
 13
        0.00000
 23
        3.80000
 33
        2.10000
999
WEST PERIMETER:SB41
  0
3DFACE
  8
WEST_PERIMETER
 62
 43
 10
        0.00000
 20
        0.00000
 30
        2.40000
 11
        0.00000
 21
        0.00000
 31
        0.00000
 12
        3.70000
 22
        3.70000
 32
        0.00000
 13
        3.70000
 23
        3.70000
 33
        2.40000
999
WEST PERIMETER:SB43
  0
3DFACE
  8
WEST_PERIMETER
 62
 43
 10
        3.70000
 20
       11.60000
 30
        2.40000
 11
        3.70000
 21
       11.60000
 31
        0.00000
 12
        0.00000
 22
       15.20000
 32
        0.00000
 13
        0.00000
 23
       15.20000
 33
        2.40000
999
WEST PERIMETER:SB45
  0
3DFACE
  8
WEST_PERIMETER
 62
 43
 10
        3.70000
 20
        3.70000
 30
        2.40000
 11
        3.70000
 21
        3.70000
 31
        0.00000
 12
        3.70000
 22
       11.60000
 32
        0.00000
 13
        3.70000
 23
       11.60000
 33
        2.40000
999
WEST PERIMETER:F4-1
  0
3DFACE
  8
WEST_PERIMETER
 62
  8
 10
        3.70000
 20
        3.70000
 30
        0.00000
 11
        0.00000
 21
        0.00000
 31
        0.00000
 12
        0.00000
 22
       15.20000
 32
        0.00000
 13
        3.70000
 23
       11.60000
 33
        0.00000
999
WEST PERIMETER:C4-1
  0
3DFACE
  8
WEST_PERIMETER
 62
 15
 10
        3.70000
 20
       11.60000
 30
        2.40000
 11
        0.00000
 21
       15.20000
 31
        2.40000
 12
        0.00000
 22
        0.00000
 32
        2.40000
 13
        3.70000
 23
        3.70000
 33
        2.40000
999
CORE:SB51
  0
3DFACE
  8
CORE
 62
 43
 10
        3.70000
 20
        3.70000
 30
        2.40000
 11
        3.70000
 21
        3.70000
 31
        0.00000
 12
       26.80000
 22
        3.70000
 32
        0.00000
 13
       26.80000
 23
        3.70000
 33
        2.40000
999
CORE:SB52
  0
3DFACE
  8
CORE
 62
 43
 10
       26.80000
 20
        3.70000
 30
        2.40000
 11
       26.80000
 21
        3.70000
 31
        0.00000
 12
       26.80000
 22
       11.60000
 32
        0.00000
 13
       26.80000
 23
       11.60000
 33
        2.40000
999
CORE:SB53
  0
3DFACE
  8
CORE
 62
 43
 10
       26.80000
 20
       11.60000
 30
        2.40000
 11
       26.80000
 21
       11.60000
 31
        0.00000
 12
        3.70000
 22
       11.60000
 32
        0.00000
 13
        3.70000
 23
       11.60000
 33
        2.40000
999
CORE:SB54
  0
3DFACE
  8
CORE
 62
 43
 10
        3.70000
 20
       11.60000
 30
        2.40000
 11
        3.70000
 21
       11.60000
 31
        0.00000
 12
        3.70000
 22
        3.70000
 32
        0.00000
 13
        3.70000
 23
        3.70000
 33
        2.40000
999
CORE:F5-1
  0
3DFACE
  8
CORE
 62
  8
 10
       26.80000
 20
       11.60000
 30
        0.00000
 11
       26.80000
 21
        3.70000
 31
        0.00000
 12
        3.70000
 22
        3.70000
 32
        0.00000
 13
        3.70000
 23
       11.60000
 33
        0.00000
999
CORE:C5-1
  0
3DFACE
  8
CORE
 62
 15
 10
        3.70000
 20
       11.60000
 30
        2.40000
 11
        3.70000
 21
        3.70000
 31
        2.40000
 12
       26.80000
 22
        3.70000
 32
        2.40000
 13
       26.80000
 23
       11.60000
 33
        2.40000
  0
ENDSEC
  0
EOF
